.SUBCKT INV 1 10  2
MNL 2 1 0 0 CMOSN L= 0.5U W=1U
MP1  2  1 10  10 CMOSP L= 0.5U W = 2.67u
.ENDS


.SUBCKT NAND2 9 11 10 12
MN1 12 11 13 0 CMOSN L= 0.5U W = 1U
MN2 13 9 0 0 CMOSN L= 0.5U W = 1U
MP1 12 11 10 10 CMOSP L=0.5U W =1.33U
MP2 12  9 10 10 CMOSP L=0.5U W =1.33U
.ENDS


.SUBCKT INV3 5 8 3 10 6
MN1 6 5 7 0 CMOSN L= 0.5U W=1U
MN2 7 8 0 0 CMOSN L = 0.5U W=1U
MP1 4 3 10 10 CMOSP L=0.3U W = 2.67U
MP2 6 5 4 10 CMOSP L=0.5U W=2.67U
.ENDS
